Circuit: * C:\Users\nicob\Desktop\Tópicos Especiais 1\exemplo em aula\Portas logicas\AND 3 entradas\AND 3 entradas.asc

Direct Newton iteration for .op point succeeded.

Date: Tue Aug 29 20:19:47 2017
Total elapsed time: 0.365 seconds.

tnom = 27
temp = 27
method = modified trap
totiter = 3036
traniter = 3021
tranpoints = 1405
accept = 1311
rejected = 94
matrix size = 35
fillins = 0
solver = Normal
Matrix Compiler1: 3.50 KB object code size  1.5/0.6/[0.4]
Matrix Compiler2: off  [0.6]/0.9/0.7

