Circuit: * C:\Users\nicob\Desktop\Tópicos Especiais 1\trabalho 2\NAND 3 entradas\AND 3 entradas.asc

Direct Newton iteration for .op point succeeded.

Date: Sun Sep 10 21:07:09 2017
Total elapsed time: 0.210 seconds.

tnom = 27
temp = 27
method = modified trap
totiter = 3036
traniter = 3021
tranpoints = 1405
accept = 1311
rejected = 94
matrix size = 35
fillins = 0
solver = Normal
Matrix Compiler1: 3.50 KB object code size  1.5/0.6/[0.2]
Matrix Compiler2: 4.05 KB object code size  0.7/0.8/[0.5]

