Circuit: * C:\Users\PCC\Desktop\Topicos_Especiais_1\Trabalho 6\Parte 2\Parte 2.asc

Direct Newton iteration for .op point succeeded.

Date: Sat Nov 25 04:38:55 2017
Total elapsed time: 0.172 seconds.

tnom = 27
temp = 27
method = trap
totiter = 40
traniter = 0
tranpoints = 0
accept = 0
rejected = 0
matrix size = 11
fillins = 2
solver = Normal
Matrix Compiler1:      38 opcodes
Matrix Compiler2:      77 opcodes
