Circuit: * C:\Users\PCC\Desktop\Topicos_Especiais_1\Trabalho 6\Parte 2\Parte 2 com valores de melhor ganho.asc

Direct Newton iteration for .op point succeeded.

ganho: v(vout)=(4.91767dB,-103.287°) at 1


Date: Sat Nov 25 04:45:12 2017
Total elapsed time: 0.158 seconds.

tnom = 27
temp = 27
method = trap
totiter = 40
traniter = 0
tranpoints = 0
accept = 0
rejected = 0
matrix size = 11
fillins = 2
solver = Normal
Matrix Compiler1:      38 opcodes
Matrix Compiler2:      77 opcodes
