Circuit: * C:\Users\nicob\Desktop\Tópicos Especiais 1\trabalho 2\NOR 2 entradas\OR 2 entradas.asc

WARNING: Node NC_01 is floating.
WARNING: Node NC_02 is floating.

WARNING: Less than two connections to node NC_01.  This node is used by M3.
WARNING: Less than two connections to node NC_02.  This node is used by M4.
Direct Newton iteration for .op point succeeded.

Date: Sun Sep 10 21:08:20 2017
Total elapsed time: 0.174 seconds.

tnom = 27
temp = 27
method = modified trap
totiter = 2579
traniter = 2560
tranpoints = 1198
accept = 1153
rejected = 45
matrix size = 26
fillins = 2
solver = Normal
Matrix Compiler1: 2.71 KB object code size  1.3/0.8/[0.3]
Matrix Compiler2: 2.86 KB object code size  0.6/1.0/[0.5]

