Circuit: *Circuit Name

Direct Newton iteration for .op point succeeded.

ganho: v(vout)=(50.2734dB,-0.0343546°) at 1


Date: Sat Nov 25 17:51:32 2017
Total elapsed time: 0.234 seconds.

tnom = 27
temp = 27
method = trap
totiter = 21
traniter = 0
tranpoints = 0
accept = 0
rejected = 0
matrix size = 11
fillins = 3
solver = Normal
Matrix Compiler1:      40 opcodes
Matrix Compiler2: 1011 bytes object code size
