Circuit: * C:\Users\PCC\Desktop\Topicos_Especiais_1\Trabalho 4\fonte comum\Parte 1\fonte comum.asc

Direct Newton iteration for .op point succeeded.

Date: Sat Nov 04 21:38:16 2017
Total elapsed time: 0.078 seconds.

tnom = 27
temp = 27
method = trap
totiter = 7
traniter = 0
tranpoints = 0
accept = 0
rejected = 0
matrix size = 7
fillins = 0
solver = Normal
Matrix Compiler1:      10 opcodes
Matrix Compiler2: 413 bytes object code size
