Circuit: * C:\Users\nicob\Desktop\Tópicos Especiais 1\trabalho 2\NOR 3 entradas\OR 2 entradas.asc

Direct Newton iteration for .op point succeeded.

Date: Thu Sep 07 21:22:49 2017
Total elapsed time: 0.203 seconds.

tnom = 27
temp = 27
method = modified trap
totiter = 3116
traniter = 3101
tranpoints = 1412
accept = 1314
rejected = 98
matrix size = 35
fillins = 0
solver = Normal
Matrix Compiler1: 3.53 KB object code size  1.5/0.6/[0.4]
Matrix Compiler2: 3.79 KB object code size  0.5/0.7/[0.5]

