Circuit: * C:\Users\PCC\Desktop\Topicos_Especiais_1\Trabalho 6\Parte 1.asc

Direct Newton iteration for .op point succeeded.

Date: Sat Nov 04 04:27:19 2017
Total elapsed time: 0.188 seconds.

tnom = 27
temp = 27
method = trap
totiter = 21
traniter = 0
tranpoints = 0
accept = 0
rejected = 0
matrix size = 11
fillins = 2
solver = Normal
Matrix Compiler1:      38 opcodes
Matrix Compiler2: 1003 bytes object code size
