Circuit: * Fonte Comum

Direct Newton iteration for .op point succeeded.

ganho: v(v_out)=(23.1792dB,180°) at 1


Date: Wed Oct 18 20:17:59 2017
Total elapsed time: 0.033 seconds.

tnom = 27
temp = 27
method = trap
totiter = 4
traniter = 0
tranpoints = 0
accept = 0
rejected = 0
matrix size = 7
fillins = 0
solver = Normal
Matrix Compiler1:      10 opcodes
Matrix Compiler2: 413 bytes object code size
