Circuit: * C:\Users\nicob\Desktop\Tópicos Especiais 1\exemplo em aula\Portas logicas\OR 2 entrads\OR 2 entradas.asc

WARNING: Node NC_01 is floating.
WARNING: Node NC_02 is floating.

WARNING: Less than two connections to node NC_01.  This node is used by M3.
WARNING: Less than two connections to node NC_02.  This node is used by M4.
Direct Newton iteration for .op point succeeded.

Date: Wed Aug 30 10:33:42 2017
Total elapsed time: 0.328 seconds.

tnom = 27
temp = 27
method = modified trap
totiter = 2579
traniter = 2560
tranpoints = 1198
accept = 1153
rejected = 45
matrix size = 26
fillins = 2
solver = Normal
Matrix Compiler1: 2.71 KB object code size  1.2/0.7/[0.5]
Matrix Compiler2: 2.86 KB object code size  0.5/0.8/[0.4]

