Circuit: * C:\Users\nicob\Desktop\Tópicos Especiais 1\exemplo em aula\Inversor\inversor.asc

Direct Newton iteration for .op point succeeded.

Date: Wed Aug 23 20:22:14 2017
Total elapsed time: 0.203 seconds.

tnom = 27
temp = 27
method = modified trap
totiter = 2262
traniter = 2255
tranpoints = 1103
accept = 1085
rejected = 18
matrix size = 13
fillins = 0
solver = Normal
Matrix Compiler1: 996 bytes object code size  0.5/0.3/[0.1]
Matrix Compiler2: 1.30 KB object code size  0.2/0.3/[0.2]

