Circuit: * C:\Users\nicob\Desktop\Tópicos Especiais 1\trabalho 2\Inversor\inversor.asc

Direct Newton iteration for .op point succeeded.

Date: Sun Sep 10 21:01:05 2017
Total elapsed time: 0.341 seconds.

tnom = 27
temp = 27
method = modified trap
totiter = 2262
traniter = 2255
tranpoints = 1103
accept = 1085
rejected = 18
matrix size = 13
fillins = 0
solver = Normal
Matrix Compiler1: 996 bytes object code size  0.4/0.2/[0.1]
Matrix Compiler2: 1.30 KB object code size  0.3/0.3/[0.2]

