Circuit: * C:\Users\nicob\Desktop\Tópicos Especiais 1\exemplo em aula\Draft1.asc

Direct Newton iteration for .op point succeeded.

Date: Mon Aug 07 20:31:59 2017
Total elapsed time: 0.031 seconds.

tnom = 27
temp = 27
method = modified trap
totiter = 2091
traniter = 2088
tranpoints = 1045
accept = 1045
rejected = 0
matrix size = 2
fillins = 0
solver = Normal
Matrix Compiler1: 36 bytes object code size  0.0/0.0/[0.0]
Matrix Compiler2:       9 opcodes  0.0/[0.0]/0.0

