Circuit: * C:\Users\nicob\Desktop\Tópicos Especiais 1\exemplo em aula\exemplo 1.asc


Date: Mon Aug 07 20:32:53 2017
Total elapsed time: 0.017 seconds.

tnom = 27
temp = 27
method = trap
totiter = 0
traniter = 0
tranpoints = 0
accept = 0
rejected = 0
matrix size = 3
fillins = 0
solver = Normal

