Circuit: * C:\Users\Gauer\Downloads\1 Tópicos 1\3\Gauer\esquema\Draft1.asc

Direct Newton iteration for .op point succeeded.
Changing Tseed to 9.76562e-010

Date: Wed Sep 27 22:16:22 2017
Total elapsed time: 0.156 seconds.

tnom = 27
temp = 27
method = modified trap
totiter = 3292
traniter = 3266
tranpoints = 1040
accept = 1039
rejected = 0
matrix size = 8
fillins = 0
solver = Normal
Matrix Compiler1: 210 bytes object code size  0.1/0.0/[0.0]
Matrix Compiler2: off  [0.1]/0.1/0.1

