Circuit: * C:\Users\nicob\Desktop\Tópicos Especiais 1\exemplo em aula\Portas logicas\AND 2 entradas\AND 2 entradas.asc

Direct Newton iteration for .op point succeeded.

Date: Wed Aug 30 23:57:35 2017
Total elapsed time: 0.360 seconds.

tnom = 27
temp = 27
method = modified trap
totiter = 2488
traniter = 2474
tranpoints = 1185
accept = 1146
rejected = 39
matrix size = 24
fillins = 0
solver = Normal
Matrix Compiler1: 2.23 KB object code size  1.1/0.5/[0.3]
Matrix Compiler2: 2.68 KB object code size  0.4/0.8/[0.4]

