Circuit: * C:\Users\nicob\Desktop\Tópicos Especiais 1\trabalho 2\Parte 4\parte 4.asc

Direct Newton iteration for .op point succeeded.

Date: Mon Sep 11 21:25:02 2017
Total elapsed time: 0.461 seconds.

tnom = 27
temp = 27
method = modified trap
totiter = 3705
traniter = 3681
tranpoints = 1531
accept = 1397
rejected = 134
matrix size = 108
fillins = 0
solver = Normal
Thread vector: 83.7/55.5[2] 10.8/7.2[2] 3.4/3.5[1] 1.2/1.6[1]  2592/500
Matrix Compiler1: 12.58 KB object code size  5.0/3.2/[2.7]
Matrix Compiler2: 12.53 KB object code size  2.8/4.7/[1.2]

