Circuit: * C:\Users\PCC\Desktop\Topicos Especiais 1\Trabalho 3\Modelo\pequenos sinais.asc

Direct Newton iteration for .op point succeeded.

Date: Wed Sep 27 23:08:42 2017
Total elapsed time: 0.214 seconds.

tnom = 27
temp = 27
method = modified trap
totiter = 2114
traniter = 2106
tranpoints = 1042
accept = 1042
rejected = 0
matrix size = 7
fillins = 0
solver = Normal
Matrix Compiler1:      10 opcodes  0.1/[0.0]/0.1
Matrix Compiler2: 413 bytes object code size  0.0/0.2/[0.0]

