Circuit: * C:\Users\PCC\Desktop\Topicos_Especiais_1\Trabalho 5\Parte 5\Parte 5.asc


Date: Tue Oct 17 19:20:36 2017
Total elapsed time: 0.087 seconds.

tnom = 27
temp = 27
method = trap
totiter = 106
traniter = 0
tranpoints = 0
accept = 0
rejected = 0
matrix size = 5
fillins = 0
solver = Normal
Matrix Compiler1:       6 opcodes  0.1/[0.0]/0.1
Matrix Compiler2: 247 bytes object code size  0.1/0.1/[0.0]

